/*--------------------------------*- C++ -*----------------------------------*\
| =========                 |                                                 |
| \\      /  F ield         | OpenFOAM: The Open Source CFD Toolbox           |
|  \\    /   O peration     | Version:  v2212                                 |
|   \\  /    A nd           | Website:  www.openfoam.com                      |
|    \\/     M anipulation  |                                                 |
\*---------------------------------------------------------------------------*/
FoamFile
{
    version     2.0;
    format      binary;
    class       dictionary;
    object      fvSolution;
}
// * * * * * * * * * * * * * * * * * * * * * * * * * * * * * * * * * * * * * //

solvers
{
    p
    {
        solver          PCG;
        preconditioner
        {
            preconditioner  GAMG;
            smoother        DIC;
            tolerance       1e-05;
            relTol          0.1;
        }
        tolerance       1e-16;
        relTol          0.1;
        minIter         1;
        maxIter         5;
    }
    U
    {
        solver          PBiCGStab;
        preconditioner  DILU;
        tolerance       1e-16;
        relTol          0.1;
        minIter         1;
        maxIter         5;
    }
}

SIMPLE
{
    consistent      no;
    nNonOrthogonalCorrectors 0;
    pRefCell        0;
    pRefValue       0;
    residualControl
    {
        p               1e-160;
        U               1e-16;
    }
}

relaxationFactors
{
    fields
    {
        p               0.3;
    }
    equations
    {
        U               0.7;
    }
}

// ************************************************************************* //