/*--------------------------------*- C++ -*----------------------------------*\
| =========                 |                                                 |
| \\      /  F ield         | OpenFOAM: The Open Source CFD Toolbox           |
|  \\    /   O peration     | Version:  2312                                  |
|   \\  /    A nd           | Website:  www.openfoam.com                      |
|    \\/     M anipulation  |                                                 |
\*---------------------------------------------------------------------------*/
FoamFile
{
    version     2.0;
    format      ascii;
    class       dictionary;
    location    "system";
    object      collapseDict;
}
// * * * * * * * * * * * * * * * * * * * * * * * * * * * * * * * * * * * * * //

controlMeshQuality      off;
collapseEdgesCoeffs
{
    minimumEdgeLength   1e-6;
    maximumMergeAngle   180;
}
collapseFacesCoeffs
{
    initialFaceLengthFactor                 0.35;
    maxCollapseFaceToPointSideLengthCoeff   0.3;
    allowEarlyCollapseToPoint               on;
    allowEarlyCollapseCoeff                 0.2;
    guardFraction                           0.1;
}
